/*--------------------------------*- C++ -*----------------------------------*\
| =========                 |                                                 |
| \\      /  F ield         | foam-extend: Open Source CFD                    |
|  \\    /   O peration     | Version:     3.2                                |
|   \\  /    A nd           | Web:         http://www.foam-extend.org         |
|    \\/     M anipulation  |                                                 |
\*---------------------------------------------------------------------------*/
FoamFile
{
    version     2.0;
    format      ascii;
    class       dictionary;
    location    "constant";
    object      sedimenttProperties;
}
// * * * * * * * * * * * * * * * * * * * * * * * * * * * * * * * * * * * * * //

nu1              nu1 [ 0 2 -1 0 0 0 0 ] 1e-06;// dynamic viscosity of water

nu2              nu2 [ 0 2 -1 0 0 0 0 ] 0;  //Artificial visocity of air to prevent intrusion

Db              Db [ 0 1 0 0 0 0 0 ] 1.2E-03; //bedload particle diameter

Dss1            Dss1 [ 0 1 0 0 0 0 0 ] 0.9e-4; //SS1 particle diameter

Dss2            Dss2 [ 0 1 0 0 0 0 0 ] 0.75e-04; //SS2 particle diameter

rhoB             rhoB [ 1 -3 0 0 0 0 0 ] 2160; //bedload particle density

rhoSS1		 rhoSS1 [ 1 -3 0 0 0 0 0 ] 1440; //suspended sediment 1 density

rhoSS2		 rhoSS2 [ 1 -3 0 0 0 0 0 ] 1800; //suspended sediment 2 density

rhof             rhof [ 1 -3 0 0 0 0 0 ] 996; //fluid density

Pa		Pa  [ 0 0 0 0 0 0 0 ] 0.3; //Proportion of Type A ie bedload sediment

Pc		Pc  [ 0 0 0 0 0 0 0 ] 0.7; //Proportion of Type C ie SS1 

Pe		Pe  [ 0 0 0 0 0 0 0 ] 0; //Proportion of Type E ie SS2

DyP		DyP  [ 0 0 0 0 0 0 0 ] 1; //Dynamic proportions on (1) or off (0)

n		n  [ 0 0 0 0 0 0 0 ] 0.41; //bed porosity

mud  		mud [ 0 0 0 0 0 0 0 ] 0.6; //dynamic friction coefficient

mus  		mus [ 0 0 0 0 0 0 0 ] 0.65; //static friction coefficient

BLa  		BLa [ 0 0 0 0 0 0 0 ] 10; //between 6 and 10

Ubiterations  	Ubiterations [ 0 0 0 0 0 0 0 ] 8000; //correction loop iterations

xsens 	xsens [ 0 0 0 0 0 0 0 ] 5e-5; //sensitivity of Ub correction loop in primary flow direction

yzsens   yzsens [ 0 0 0 0 0 0 0 ] 5e-6; //sensitivity of Ub correction loop in non-primary flow directions

xMin 	xMin [ 0 1 0 0 0 0 0 ] 0; //Min X-coordinates of the mesh

xMax 	xMax [ 0 1 0 0 0 0 0 ] 15; //Max X-coordinates of the mesh

UxMin 	UxMin [ 0 1 0 0 0 0 0 ] 3; //Min distance from inlet after which exner eqn is implemented

UxMax 	UxMax [ 0 1 0 0 0 0 0 ] 0.2; //Max distance from outlet before which exner eqn is implemented

erosion erosion [ 0 0 0 0 0 0 0 ] 1; //0 for deposition, 1 for erosion, and 2 for both scenarios

dd0	dd0	[ 0 1 0 0 0 0 0 ]  0.0147; //initial weak deposit height in m

Bemp	Bemp	[ 0 0 0 0 0 0 0 ]  0.2; //b empirical value in TauC2 calc

Femp	Femp	[ 0 0 0 0 0 0 0 ]  3; //fraction of Tc1 value for initial weak bed shields

H0	H0	[ 0 1 0 0 0 0 0 ]  0.0147; //initial deposited bed height in m

Hmax	Hmax	[ 0 1 0 0 0 0 0 ] 0.001; //max deposited bed height in m

TdepSP	TdepSP	[ 0 0 1 0 0 0 0 ] 100; //setpoint for deposition time after which scaling initiates

morphTimeScale  morphTimeScale [ 0 1 0 0 0 0 0 ]  1;

bedSS	bedSS	[ 0 0 0 0 0 0 0 ]  1; //Bed in steady state 0 for no and 1 for yes

Href1	Href1	[ 0 1 0 0 0 0 0 ] 0.02; //Maximum deposition scaling height when steady state scaling occurs 
// ************************************************************************* //
