/*--------------------------------*- C++ -*----------------------------------*\
| =========                 |                                                 |
| \\      /  F ield         | OpenFOAM Extend Project: Open Source CFD        |
|  \\    /   O peration     | Version:  1.6-ext                               |
|   \\  /    A nd           | Web:      www.extend-project.de                 |
|    \\/     M anipulation  |                                                 |
\*---------------------------------------------------------------------------*/
FoamFile
{
    version     2.0;
    format      ascii;
    class       dictionary;
    location    "constant";
    object      dynamicMeshDict;
}
// * * * * * * * * * * * * * * * * * * * * * * * * * * * * * * * * * * * * * //
dynamicFvMeshLibs       ("libdynamicTopoFvMesh.so");

//- Select the type of dynamicFvMesh
dynamicFvMesh          dynamicMotionSolverFvMesh;  //dynamicTopoFvMesh;

twoDMotion yes;

//- Select the type of motionSolver
solver                   laplace; //displacementLaplacian;

diffusivity     quadratic inverseDistance; 

distancePatches 1 (bed);

frozenDiffusion   off;

// ************************************************************************* //
