/*--------------------------------*- C++ -*----------------------------------*\
| =========                 |                                                 |
| \\      /  F ield         | foam-extend: Open Source CFD                    |
|  \\    /   O peration     | Version:     3.2                                |
|   \\  /    A nd           | Web:         http://www.foam-extend.org         |
|    \\/     M anipulation  |                                                 |
\*---------------------------------------------------------------------------*/
FoamFile
{
    version     2.0;
    format      ascii;
    class       dictionary;
    location    "system";
    object      faSchemes;
}
// * * * * * * * * * * * * * * * * * * * * * * * * * * * * * * * * * * * * * //

ddtSchemes
{
//    default         ;
}

gradSchemes
{
    default Gauss linear;
    grad(Us) Gauss linear;
    grad((Us&faceAreaNormals)) Gauss linear;
}

divSchemes
{
    default Gauss linear;
    div(Us) Gauss linear;
}

laplacianSchemes
{
}

interpolationSchemes
{
}

snGradSchemes
{
}

fluxRequired
{
}

// ************************************************************************* //
